New Line.L1     Phases=2 Bus1=1.1.2        Bus2=2s.1.2        LineCode=8   Length=0.175
New Line.L2     Phases=1 Bus1=2s.2        Bus2=3s.2        LineCode=11   Length=0.25


